simulator lang=spectre

library vlsi35

section tt
parameters toxn=7.5e-9
parameters toxp=7.7e-9
parameters toxe=7.5e-09
parameters dxl=0
parameters dxw=0
parameters dvtn=0
parameters dvtp=0
parameters delvtoe=0
parameters cjn=9.50957e-4
parameters cjp=1.38871e-3
parameters cje=0.00101893
parameters cjswn=2.84489e-10
parameters cjswp=3.86159e-10
parameters cjswe=3.057956e-10
parameters cgon=2.063e-10
parameters cgop=1.83e-10
parameters cgoe=1.96000e-10
parameters cjswgn=1.816514e-10
parameters cjswgp=4.415421e-11
parameters cjswge=1.524314e-10
parameters hdifn=3.65e-07
parameters hdifp=3.65e-07
parameters hdife=1.08e-06
include "vlsi35.scs" section=mos
endsection tt
//  ************** CORNER_LIB OF  SNSP   MODEL ****************************
section ss
parameters toxn=8.0e-9
parameters toxp=8.2e-9
parameters toxe=8e-09
parameters dxl=4e-8
parameters dxw=-6e-8
parameters dvtn=0.1
parameters dvtp=-0.1
parameters delvtoe=0.1
parameters cjn=1.0460527e-3
parameters cjp=1.527581e-3
parameters cje=0.001120823
parameters cjswn=3.129379e-10
parameters cjswp=4.247749e-10
parameters cjswe=3.363752e-10
parameters cgon=2.2693e-10
parameters cgop=2.013e-10
parameters cgoe=2.156e-10
parameters cjswgn=1.9981654e-10
parameters cjswgp=4.8569631e-11
parameters cjswge=1.676745e-10
parameters hdifn=3.65e-07
parameters hdifp=3.65e-07
parameters hdife=1.08e-06
include "vlsi35.scs" section=mos
endsection ss
//  ************** CORNER_LIB OF  FNFP   MODEL ****************************
section ff
parameters toxn=7.0e-9
parameters toxp=7.2e-9
parameters toxe=7e-09
parameters dxl=-4e-8
parameters dxw=6e-8
parameters dvtn=-0.1
parameters dvtp=0.1
parameters delvtoe=-0.1
parameters cjn=8.558613e-4
parameters cjp=1.249839e-3
parameters cje=0.000917037
parameters cjswn=2.560401e-10
parameters cjswp=3.475431e-10
parameters cjswe=2.75216e-10
parameters cgon=1.8567e-10
parameters cgop=1.647e-10
parameters cgoe=1.764e-10
parameters cjswgn=1.6348626e-10
parameters cjswgp=3.9738739e-11
parameters cjswge=1.371883e-10
parameters hdifn=3.65e-07
parameters hdifp=3.65e-07
parameters hdife=1.08e-06
include "vlsi35.scs" section=mos
endsection ff
//  ************** CORNER_LIB OF  SNFP   MODEL ****************************
section sf
parameters toxn=7.5e-9
parameters toxp=7.7e-9
parameters toxe=7.5e-09
parameters dxl=0
parameters dxw=0
parameters dvtn=0.1
parameters dvtp=0.1
parameters delvtoe=0.1
parameters cjn=1.0460527e-3
parameters cjp=1.249839e-3
parameters cje=0.001120823
parameters cjswn=3.129379e-10
parameters cjswp=3.475431e-10
parameters cjswe=3.363752e-10
parameters cgon=2.063e-10
parameters cgop=1.83e-10
parameters cgoe=1.96000e-10
parameters cjswgn=1.9981654e-10
parameters cjswgp=3.9738739e-11
parameters cjswge=1.676745e-10
parameters hdifn=3.65e-07
parameters hdifp=3.65e-07
parameters hdife=1.08e-06
include "vlsi35.scs" section=mos
endsection sf
//  ************** CORNER_LIB OF  FNSP   MODEL ****************************
section fs
parameters toxn=7.5e-9
parameters toxp=7.7e-9
parameters toxe=7.5e-09
parameters dxl=0
parameters dxw=0
parameters dvtn=-0.1
parameters dvtp=-0.1
parameters delvtoe=-0.1
parameters cjn=8.558613e-4
parameters cjp=1.527581e-3
parameters cje=0.000917037
parameters cjswn=2.560401e-10
parameters cjswp=4.247749e-10
parameters cjswe=2.75216e-10
parameters cgon=2.063e-10
parameters cgop=1.83e-10
parameters cgoe=1.96000e-10
parameters cjswgn=1.6348626e-10
parameters cjswgp=4.8569631e-11
parameters cjswge=1.371883e-10
parameters hdifn=3.65e-07
parameters hdifp=3.65e-07
parameters hdife=1.08e-06
include "vlsi35.scs" section=mos
endsection fs
// 
//  *************************************************************
//                                                              *
//                   5V NORMAL DEVICES LIB                      *
//                                                              *
//  *************************************************************
//  *************** CORNER_LIB OF TYPICAL MODEL ****************************
section tt_5v
parameters toxn5=1.46e-8
parameters toxp5=1.48e-8
parameters toxe5=1.46e-08
parameters dxl5=0
parameters dxw5=0
parameters dvtn5=0
parameters dvtp5=0
parameters dvte5=0
parameters cjn5=9.97124e-4
parameters cjp5=1.385012e-3
parameters cje5=8.250009e-4
parameters cjswn5=2.68215e-10
parameters cjswp5=3.68278e-10
parameters cjswe5=6.894958e-10
parameters cgon5=1.6463e-10
parameters cgop5=1.714154e-10
parameters cgoe5=2.74000e-10
parameters cjswgn5=1.844056e-10
parameters cjswgp5=6.89655e-11
parameters cjswge5=5.323704e-10
parameters hdifn5=3.65e-07
parameters hdifp5=3.65e-07
parameters hdife5=3.8e-07
include "vlsi35.scs" section=mos_5v
endsection tt_5v
//  ************** CORNER_LIB OF  SNSP   MODEL **************************** 
section ss_5v
parameters toxn5=1.56e-8
parameters toxp5=1.58e-8
parameters toxe5=1.56e-08
parameters dxl5=4e-8
parameters dxw5=-6e-8
parameters dvtn5=0.1
parameters dvtp5=-0.15
parameters dvte5=0.1
parameters cjn5=1.0968e-3
parameters cjp5=1.5235132e-3
parameters cje5=9.075010e-4
parameters cjswn5=2.950365e-10
parameters cjswp5=4.051058e-10
parameters cjswe5=7.584454e-10
parameters cgon5=1.811e-10
parameters cgop5=1.8855694e-10
parameters cgoe5=3.014000e-10
parameters cjswgn5=2.0284616e-10
parameters cjswgp5=7.586205e-11
parameters cjswge5=5.856075e-10
parameters hdifn5=3.65e-07
parameters hdifp5=3.65e-07
parameters hdife5=3.8e-7
include "vlsi35.scs" section=mos_5v
endsection ss_5v
//  ************** CORNER_LIB OF  FNFP   MODEL **************************** 
section ff_5v
parameters toxn5=1.36e-8
parameters toxp5=1.38e-8
parameters toxe5=1.36e-8
parameters dxl5=-4e-8
parameters dxw5=6e-8
parameters dvtn5=-0.1
parameters dvtp5=0.15
parameters dvte5=-0.1
parameters cjn5=8.974116e-4
parameters cjp5=1.2465108e-3
parameters cje5=7.425008e-4
parameters cjswn5=2.413539e-10
parameters cjswp5=3.314502e-10
parameters cjswe5=6.205462e-10
parameters cgon5=1.48167e-10
parameters cgop5=1.5427386e-10
parameters cgoe5=2.466000e-10
parameters cjswgn5=1.65965e-10
parameters cjswgp5=6.206895e-11
parameters cjswge5=4.791334e-10
parameters hdifn5=3.65e-07
parameters hdifp5=3.65e-07
parameters hdife5=3.8e-7
include "vlsi35.scs" section=mos_5v
endsection ff_5v
//  ************** CORNER_LIB OF  SNFP   MODEL **************************** 
section sf_5v
parameters toxn5=1.46e-8
parameters toxp5=1.48e-8
parameters toxe5=1.46e-8
parameters dxl5=0
parameters dxw5=0
parameters dvtn5=0.1
parameters dvtp5=0.15
parameters dvte5=0.1
parameters cjn5=1.0968e-3
parameters cjp5=1.2465108e-3
parameters cje5=9.075010e-4
parameters cjswn5=2.950365e-10
parameters cjswp5=3.314502e-10
parameters cjswe5=7.584454e-10
parameters cgon5=1.6463e-10
parameters cgop5=1.714154e-10
parameters cgoe5=2.7400e-10
parameters cjswgn5=2.0284616e-10
parameters cjswgp5=6.206895e-11
parameters cjswge5=5.856075e-10
parameters hdifn5=3.65e-07
parameters hdifp5=3.65e-07
parameters hdife5=3.8e-7
include "vlsi35.scs" section=mos_5v
endsection sf_5v
//  ************** CORNER_LIB OF  FNSP   MODEL **************************** 
section fs_5v
parameters toxn5=1.46e-8
parameters toxp5=1.48e-8
parameters toxe5=1.46e-8
parameters dxl5=0
parameters dxw5=0
parameters dvtn5=-0.1
parameters dvtp5=-0.15
parameters dvte5=-0.1
parameters cjn5=8.974116e-4
parameters cjp5=1.5235132e-3
parameters cje5=7.425008e-4
parameters cjswn5=2.413539e-10
parameters cjswp5=4.051058e-10
parameters cjswe5=6.205462e-10
parameters cgon5=1.6463e-10
parameters cgop5=1.714154e-10
parameters cgoe5=2.7400e-10
parameters cjswgn5=1.65965e-10
parameters cjswgp5=7.586205e-11
parameters cjswge5=4.791334e-10
parameters hdifn5=3.65e-07
parameters hdifp5=3.65e-07
parameters hdife5=3.8e-7
include "vlsi35.scs" section=mos_5v
endsection fs_5v
// 
//  ************************************************************************
// 
//  *************************************************************
//                                                              *
//                                                              *
//                3.3V NORMAL DEVICES MODEL                     *
//                                                              *
//                                                              *
//                                                              *
//  *************************************************************
//    
section mos
// 
//  *************************************************************
//                                                              *
//                3.3V NMOS DEVICES MODEL                       *
//                                                              *
//  *************************************************************
model nch bsim3v3  { 
     1: type=n minr=1e-60 lmin=1.207e-06 - dxl lmax=2.01e-05 wmin=1.183e-06 - dxw wmax=1.9983e-5 
+ - dxw tnom=25 version=3.1 ldif=1.2e-07 hdif=hdifn rsh=82.2 rd=0 rs=0 tox=toxn 
+ xj=1e-07 nch=2.3579e+17 lln=1 lwn=1 wln=1 wwn=1 lint=4e-08 ll=0 lw=0 lwl=0 wint=4e-08 
+ wl=0 ww=0 wwl=0 mobmod=1 binunit=2 xl=3e-08 + dxl xw=1.5e-07 + dxw dwg=0 dwb=0 
+ vth0=dvtn + 0.536027 lvth0=3.726466e-08 wvth0=-2.1316e-08 pvth0=-2.460013e-14 
+ k1=0.5246611 lk1=-1.639613e-08 wk1=-5.031044e-08 pk1=2.211867e-14 k2=0.02709882 
+ lk2=-6.586022e-09 wk2=5.785586e-09 pk2=3.435911e-15 k3=0 dvt0=0 dvt1=0 dvt2=0 
+ dvt0w=0 dvt1w=0 dvt2w=0 nlx=0 w0=0 k3b=0 vsat=95850.88 lvsat=0.01310061 wvsat=0.0008223997 
+ pvsat=-1.641506e-08 ua=3.196265e-11 lua=-3.698079e-17 wua=-6.408507e-16 pua=7.414642e-22 
+ ub=2.045354e-18 lub=6.227287e-25 wub=5.533028e-26 pub=-1.805726e-30 uc=6.725734e-11 
+ luc=1.901776e-17 wuc=-3.996494e-17 puc=-3.876839e-23 rdsw=750 prwb=0 prwg=0 wr=1 
+ u0=0.04660162 lu0=5.515446e-09 wu0=-1.626703e-08 pu0=-4.134264e-15 a0=0.5017616 
+ la0=5.552729e-07 wa0=6.615518e-07 pa0=-5.219843e-13 keta=-0.008348037 lketa=2.403177e-08 
+ wketa=2.44925e-08 pketa=-3.102829e-14 a1=0 a2=0.99 ags=0.09736285 lags=1.223815e-07 
+ wags=1.607973e-07 pags=-4.561918e-14 b0=0 b1=0 voff=-0.1432202 lvoff=3.766451e-08 
+ wvoff=2.755289e-08 pvoff=-1.641511e-14 nfactor=1.071551 lnfactor=-3.18949e-07 
+ wnfactor=-3.166332e-07 pnfactor=4.241266e-13 cit=-7.628655e-05 lcit=2.723331e-10 
+ wcit=4.660042e-10 pcit=-4.03804e-16 cdsc=0 cdscb=0 cdscd=0 eta0=0.0002181413 leta0=4.893156e-10 
+ weta0=-2.201543e-10 peta0=3.379313e-16 etab=1.65427e-05 letab=-1.913991e-11 wetab=-2.072801e-11 
+ petab=2.39823e-17 dsub=0 pclm=0.1632291 lpclm=7.33948e-07 wpclm=7.523777e-09 ppclm=-1.501737e-13 
+ pdiblc1=1e-05 pdiblc2=-0.0001189527 lpdiblc2=3.04769e-09 wpdiblc2=7.281391e-12 
+ ppdiblc2=-5.988417e-16 pdiblcb=0.138753 drout=0 pscbe1=4.710076e+08 lpscbe1=-47.68667 
+ wpscbe1=-72.788 ppscbe1=-1.725277e-05 pscbe2=0.0001510638 lpscbe2=-1.69574e-10 
+ wpscbe2=-1.390941e-10 ppscbe2=1.578688e-16 pvag=0 delta=0.01 alpha0=2.5e-06 beta0=20.7 
+ kt1=-0.2700492 lkt1=-3.095004e-08 wkt1=2.812907e-08 pkt1=7.879249e-14 kt2=-0.04153765 
+ lkt2=2.524311e-08 wkt2=2.833375e-08 pkt2=-1.608147e-14 at=2219.528 lat=-0.02686487 
+ wat=-0.002395568 pat=2.596705e-08 ute=-2.065168 lute=-4.132515e-07 wute=4.668071e-07 
+ pute=3.33133e-13 ua1=1.422613e-10 lua1=-1.44336e-15 wua1=9.693937e-16 pua1=1.598886e-22 
+ ub1=-2.172033e-18 lub1=1.404262e-24 wub1=5.546184e-26 pub1=6.856764e-31 uc1=-5.716306e-11 
+ luc1=5.31648e-17 wuc1=-2.396283e-17 puc1=-2.142338e-24 kt1l=0 prt=24.11496 lprt=-1.086812e-05 
+ wprt=-0.000500091 pprt=1.361775e-11 cj=cjn cjsw=cjswn cjswg=cjswgn mj=0.3297355 
+ mjsw=0.1303453 mjswg=0.1303453 pb=0.6944804 pbsw=0.6944804 pbswg=0.6944804 cta=9.42521e-4 
+ ctp=4.91382e-04 pta=1.485657e-03 ptp=1.485657e-03 cgdo=cgon cgso=cgon xti=3 n=1 
+ capmod=0 nqsmod=0 xpart=1 cf=0 
+ js=6.27496e-05 jsw=5.79847e-10 
// 
// 
     2: type=n minr=1e-60 lmin=8.07e-07 - dxl lmax=1.207e-06 - dxl wmin=1.183e-06 - dxw wmax=1.9983e-5 
+ - dxw tnom=25 version=3.1 ldif=1.2e-07 hdif=hdifn rsh=82.2 rd=0 rs=0 tox=toxn 
+ xj=1e-07 nch=2.3579e+17 lln=1 lwn=1 wln=1 wwn=1 lint=4e-08 ll=0 lw=0 lwl=0 wint=4e-08 
+ wl=0 ww=0 wwl=0 mobmod=1 binunit=2 xl=3e-08 + dxl xw=1.5e-07 + dxw dwg=0 dwb=0 
+ vth0=dvtn + 0.546655 lvth0=2.496758e-08 wvth0=-4.998887e-08 pvth0=8.574382e-15 
+ k1=0.4989724 lk1=1.332564e-08 wk1=-1.063668e-07 pk1=8.697584e-14 k2=0.02537151 
+ lk2=-4.587532e-09 wk2=1.546677e-08 pk2=-7.765214e-15 k3=0 dvt0=0 dvt1=0 dvt2=0 
+ dvt0w=0 dvt1w=0 dvt2w=0 nlx=0 w0=0 k3b=0 vsat=129157.8 lvsat=-0.02543551 wvsat=-0.07469934 
+ pvsat=7.096359e-08 ua=0 ub=3.817944e-18 lub=-1.428159e-24 wub=-3.001886e-24 pub=1.731473e-30 
+ uc=1.288592e-10 luc=-5.225554e-17 wuc=-1.385508e-16 puc=7.529545e-23 rdsw=750 
+ prwb=0 prwg=0 wr=1 u0=0.05813805 lu0=-7.83221e-09 wu0=-2.807534e-08 pu0=9.527953e-15 
+ a0=1.417374 la0=-5.040912e-07 wa0=4.499891e-07 pa0=-2.772062e-13 keta=0.02457614 
+ lketa=-1.40615e-08 wketa=-1.016334e-08 pketa=9.068513e-15 a1=0 a2=0.99 ags=0.5850528 
+ lags=-4.418758e-07 wags=4.016458e-07 pags=-3.242809e-13 b0=0 b1=0 voff=-0.1838075 
+ lvoff=8.462402e-08 wvoff=1.050108e-07 pvoff=-1.060339e-13 nfactor=-0.0335216 lnfactor=9.596193e-07 
+ wnfactor=1.057246e-06 pnfactor=-1.165451e-12 cit=0.0004911736 lcit=-3.842184e-10 
+ wcit=-3.289006e-10 pcit=5.159007e-16 cdsc=0 cdscb=0 cdscd=0 eta0=0.0001221602 
+ leta0=6.003658e-10 weta0=9.98899e-10 peta0=-1.072513e-15 etab=-6.307671e-06 letab=7.29797e-12 
+ wetab=1.264687e-10 petab=-1.463242e-16 dsub=0 pclm=0.7657633 lpclm=3.681587e-08 
+ wpclm=-3.195318e-07 ppclm=2.282295e-13 pdiblc1=1e-05 pdiblc2=-0.001092725 lpdiblc2=4.174345e-09 
+ wpdiblc2=-5.786619e-10 ppdiblc2=7.909472e-17 pdiblcb=-0.1138522 lpdiblcb=2.922645e-07 
+ wpdiblcb=3.165146e-07 ppdiblcb=-3.662074e-13 drout=0 pscbe1=4.682528e+08 lpscbe1=-44.49948 
+ wpscbe1=-209.8855 ppscbe1=0.0001413691 pscbe2=3.714287e-06 lpscbe2=9.093489e-13 
+ wpscbe2=-8.065528e-13 ppscbe2=-2.129907e-18 pvag=0 delta=0.01 alpha0=2.5e-06 beta0=20.7 
+ kt1=-0.2160808 lkt1=-9.339147e-08 wkt1=3.355112e-08 pkt1=7.251917e-14 kt2=-0.01143072 
+ lkt2=-9.590603e-09 wkt2=2.278139e-08 pkt2=-9.657396e-15 at=-66481.34 lat=0.05262202 
+ wat=0.09716874 pat=-8.922884e-08 ute=-2.188333 lute=-2.707498e-07 wute=5.839889e-08 
+ pute=8.056612e-13 ua1=4.797778e-10 lua1=-1.833867e-15 wua1=-9.438131e-16 pua1=2.373469e-21 
+ ub1=-3.79573e-18 lub1=3.282878e-24 wub1=4.301764e-24 pub1=-4.227295e-30 uc1=-3.774725e-11 
+ luc1=3.07007e-17 wuc1=3.189914e-17 puc1=-6.677463e-23 kt1l=0 prt=46.58106 lprt=-3.686147e-05 
+ wprt=-0.001359025 pprt=1.007405e-09 cj=cjn cjsw=cjswn cjswg=cjswgn mj=0.3297355 
+ mjsw=0.1303453 mjswg=0.1303453 pb=0.6944804 pbsw=0.6944804 pbswg=0.6944804 cta=9.42521e-4 
+ ctp=4.91382e-04 pta=1.485657e-03 ptp=1.485657e-03 cgdo=cgon cgso=cgon xti=3 n=1 
+ capmod=0 nqsmod=0 xpart=1 cf=0 
+ js=6.27496e-05 jsw=5.79847e-10 
// 
// 
     3: type=n minr=1e-60 lmin=3.5e-07 lmax=8.07e-07 - dxl wmin=1.183e-06 - dxw wmax=1.9983e-5 
+ - dxw tnom=25 version=3.1 ldif=1.2e-07 hdif=hdifn rsh=82.2 rd=0 rs=0 tox=toxn 
+ xj=1e-07 nch=2.3579e+17 lln=1 lwn=1 wln=1 wwn=1 lint=4e-08 ll=0 lw=0 lwl=0 wint=4e-08 
+ wl=0 ww=0 wwl=0 mobmod=1 binunit=2 xl=3e-08 + dxl xw=1.5e-07 + dxw dwg=0 dwb=0 
+ vth0=dvtn + 0.582913 lvth0=-2.479376e-09 wvth0=-6.03258e-08 pvth0=1.639944e-14 
+ k1=0.4858325 lk1=2.327254e-08 wk1=6.104411e-08 pk1=-3.97542e-14 k2=0.04534535 
+ lk2=-1.970772e-08 wk2=-1.945053e-09 pk2=5.415533e-15 k3=0 dvt0=0 dvt1=0 dvt2=0 
+ dvt0w=0 dvt1w=0 dvt2w=0 nlx=0 w0=0 k3b=0 vsat=95126.3 lvsat=0.0003263514 wvsat=0.0276876 
+ pvsat=-6.543329e-09 ua=0 ub=2.104607e-18 lub=-1.31162e-25 wub=-5.904336e-25 pub=-9.399655e-32 
+ uc=6.617273e-11 luc=-4.801916e-18 wuc=-4.640422e-17 puc=5.540488e-24 rdsw=750 
+ prwb=0 prwg=0 wr=1 u0=0.04861747 lu0=-6.251291e-10 wu0=-1.520027e-08 pu0=-2.184713e-16 
+ a0=0.7344329 la0=1.289558e-08 wa0=-2.513495e-07 pa0=2.537071e-13 keta=0.01065971 
+ lketa=-3.526753e-09 wketa=-3.419267e-08 pketa=2.725872e-14 a1=0 a2=0.99 ags=0.2223535 
+ lags=-1.673124e-07 wags=-3.122171e-07 pags=2.161134e-13 b0=0 b1=0 voff=-0.0716667 
+ lvoff=-2.66569e-10 wvoff=-6.081282e-08 pvoff=1.949458e-14 nfactor=1.373063 lnfactor=-1.051655e-07 
+ wnfactor=-4.708978e-07 pnfactor=-8.646475e-15 cit=-9.014477e-05 lcit=5.583969e-11 
+ wcit=2.859396e-10 pcit=5.046674e-17 cdsc=0 cdscb=0 cdscd=0 eta0=-0.0003508224 
+ leta0=9.584137e-10 weta0=-1.229799e-09 peta0=6.146112e-16 etab=0.001435363 letab=-1.084047e-09 
+ wetab=-1.334921e-09 petab=9.599482e-16 dsub=0 pclm=0.7913016 lpclm=1.748337e-08 
+ wpclm=-2.414444e-08 ppclm=4.621286e-15 pdiblc1=1e-05 pdiblc2=0.0001653532 lpdiblc2=3.22198e-09 
+ wpdiblc2=-3.987821e-11 ppdiblc2=-3.287649e-16 pdiblcb=0.3624882 lpdiblcb=-6.83252e-08 
+ wpdiblcb=-1.827158e-07 ppdiblcb=1.171009e-14 drout=0 pscbe1=3.496792e+08 lpscbe1=45.26074 
+ wpscbe1=-43.00555 ppscbe1=1.504091e-05 pscbe2=4.060865e-06 lpscbe2=6.469898e-13 
+ wpscbe2=-5.382114e-12 ppscbe2=1.333792e-18 pvag=0 delta=0.01 alpha0=2.5e-06 beta0=20.7 
+ kt1=-0.4001584 lkt1=4.595524e-08 wkt1=2.659199e-07 pkt1=-1.03384e-13 kt2=-0.03018077 
+ lkt2=4.603183e-09 wkt2=1.978027e-08 pkt2=-7.385543e-15 at=-1454.14 lat=0.003396435 
+ wat=-0.01336298 pat=-5.556333e-09 ute=-2.743312 lute=1.493698e-07 wute=1.759122e-06 
+ pute=-4.817859e-13 ua1=-2.551773e-09 lua1=4.610171e-16 wua1=5.268021e-15 pua1=-2.32889e-21 
+ ub1=1.096567e-18 lub1=-4.205904e-25 wub1=-6.127881e-24 pub1=3.667946e-30 uc1=1.205581e-11 
+ luc1=-7.000217e-18 wuc1=-1.569118e-16 puc1=7.615527e-23 kt1l=0 prt=0.2675717 lprt=-1.802119e-06 
+ wprt=8.331496e-06 pprt=-2.768447e-11 cj=cjn cjsw=cjswn cjswg=cjswgn mj=0.3297355 
+ mjsw=0.1303453 mjswg=0.1303453 pb=0.6944804 pbsw=0.6944804 pbswg=0.6944804 cta=9.42521e-4 
+ ctp=4.91382e-04 pta=1.485657e-03 ptp=1.485657e-03 cgdo=cgon cgso=cgon xti=3 n=1 
+ capmod=0 nqsmod=0 xpart=1 cf=0 
+ js=6.27496e-05 jsw=5.79847e-10 
// 
// 
     4: type=n minr=1e-60 lmin=1.207e-06 - dxl lmax=2.01e-05 wmin=7.83e-07 - dxw wmax=1.183e-06 
+ - dxw tnom=25 version=3.1 ldif=1.2e-07 hdif=hdifn rsh=82.2 rd=0 rs=0 tox=toxn 
+ xj=1e-07 nch=2.3579e+17 lln=1 lwn=1 wln=1 wwn=1 lint=4e-08 ll=0 lw=0 lwl=0 wint=4e-08 
+ wl=0 ww=0 wwl=0 mobmod=1 binunit=2 xl=3e-08 + dxl xw=1.5e-07 + dxw dwg=0 dwb=0 
+ vth0=dvtn + 0.528243 lvth0=1.080427e-08 wvth0=-1.156297e-08 pvth0=8.55473e-15 
+ k1=0.4545522 lk1=3.322464e-08 wk1=3.753591e-08 pk1=-4.005616e-14 k2=0.02647978 
+ lk2=7.992918e-09 wk2=6.561244e-09 pk2=-1.48315e-14 k3=0 dvt0=0 dvt1=0 dvt2=0 dvt0w=0 
+ dvt1w=0 dvt2w=0 nlx=0 w0=0 k3b=0 vsat=96507.23 ua=-7.217974e-10 lua=8.351195e-16 
+ wua=3.036106e-16 pua=-3.512775e-22 ub=2.902607e-18 lub=-1.401372e-24 wub=-1.018808e-24 
+ pub=7.304723e-31 uc=7.178552e-11 luc=-2.088186e-17 wuc=-4.563875e-17 puc=1.122583e-23 
+ rdsw=750 prwb=0 prwg=0 wr=1 u0=0.03723282 lu0=-2.798723e-09 wu0=-4.527918e-09 
+ pu0=6.28339e-15 a0=1.848904 la0=-5.194055e-07 wa0=-1.026417e-06 pa0=8.245877e-13 
+ keta=0.01166675 lketa=-2.805299e-09 wketa=-5.86025e-10 pketa=2.598561e-15 a1=0 
+ a2=0.99 ags=0.7010739 lags=-4.640424e-07 wags=-5.956526e-07 pags=6.8917e-13 b0=0 
+ b1=0 voff=-0.1212307 lvoff=2.456386e-08 nfactor=0.8705778 lnfactor=-1.828959e-08 
+ wnfactor=-6.481431e-08 pnfactor=4.740038e-14 cit=0.0002549786 lcit=-4.391399e-11 
+ wcit=5.092893e-11 pcit=-7.546486e-18 cdsc=0 cdscb=0 cdscd=0 eta0=-8.412339e-05 
+ leta0=1.002234e-09 weta0=1.585833e-10 peta0=-3.047557e-16 etab=-3.010733e-05 letab=1.752946e-10 
+ wetab=3.772446e-11 petab=-2.19644e-16 dsub=0 pclm=0.1692336 lpclm=6.140966e-07 
+ pdiblc1=1e-05 pdiblc2=-0.000347682 lpdiblc2=1.437708e-09 wpdiblc2=2.938791e-10 
+ ppdiblc2=1.418466e-15 pdiblcb=0.1387533 drout=0 pscbe1=3.519534e+08 lpscbe1=-125.1231 
+ wpscbe1=76.38679 ppscbe1=7.977505e-05 pscbe2=-8.737216e-05 lpscbe2=9.863835e-11 
+ wpscbe2=1.596661e-10 ppscbe2=-1.782013e-16 pvag=0 delta=0.01 alpha0=2.5e-06 beta0=20.7 
+ kt1=-0.1499315 lkt1=-2.115566e-09 wkt1=-1.223785e-07 pkt1=4.266289e-14 kt2=-0.02087417 
+ lkt2=5.041189e-08 wkt2=2.442399e-09 pkt2=-4.761794e-14 at=-21673.44 lat=0.006954652 
+ wat=0.02754232 pat=-1.640881e-08 ute=-2.565965 lute=5.17659e-07 wute=1.094306e-06 
+ pute=-8.332978e-13 ua1=-1.6811e-09 lua1=1.19284e-15 wua1=3.254065e-15 pua1=-3.143271e-21 
+ ub1=-1.065109e-18 lub1=-2.464934e-25 wub1=-1.331515e-24 pub1=2.754072e-30 uc1=-8.220291e-11 
+ luc1=-3.608129e-17 wuc1=7.412109e-18 puc1=1.09683e-22 kt1l=0 prt=-1223.895 lprt=0.0009821714 
+ wprt=0.001063665 pprt=-1.230661e-09 cj=cjn cjsw=cjswn cjswg=cjswgn mj=0.3297355 
+ mjsw=0.1303453 mjswg=0.1303453 pb=0.6944804 pbsw=0.6944804 pbswg=0.6944804 cta=9.42521e-4 
+ ctp=4.91382e-04 pta=1.485657e-03 ptp=1.485657e-03 cgdo=cgon cgso=cgon xti=3 n=1 
+ capmod=0 nqsmod=0 xpart=1 cf=0 
+ js=6.27496e-05 jsw=5.79847e-10 
// 
// 
     5: type=n minr=1e-60 lmin=8.07e-07 - dxl lmax=1.207e-06 - dxl wmin=7.83e-07 - dxw wmax=1.183e-06 
+ - dxw tnom=25 version=3.1 ldif=1.2e-07 hdif=hdifn rsh=82.2 rd=0 rs=0 tox=toxn 
+ xj=1e-07 nch=2.3579e+17 lln=1 lwn=1 wln=1 wwn=1 lint=4e-08 ll=0 lw=0 lwl=0 wint=4e-08 
+ wl=0 ww=0 wwl=0 mobmod=1 binunit=2 xl=3e-08 + dxl xw=1.5e-07 + dxw dwg=0 dwb=0 
+ vth0=dvtn + 0.467619 lvth0=8.094657e-08 wvth0=4.90438e-08 pvth0=-6.156729e-14 
+ k1=0.358099 lk1=1.44821e-07 wk1=7.01475e-08 pk1=-7.778778e-14 k2=0.07054502 lk2=-4.299056e-08 
+ wk2=-4.113562e-08 pk2=4.035377e-14 k3=0 dvt0=0 dvt1=0 dvt2=0 dvt0w=0 dvt1w=0 dvt2w=0 
+ nlx=0 w0=0 k3b=0 vsat=78576.45 lvsat=0.02074592 wvsat=-0.01132088 pvsat=1.309826e-08 
+ ua=0 ub=5.741077e-19 lub=1.292701e-24 wub=1.062641e-24 pub=-1.677764e-30 uc=3.660264e-11 
+ luc=1.982473e-17 wuc=-2.295341e-17 puc=-1.502111e-23 rdsw=750 prwb=0 prwg=0 wr=1 
+ u0=0.03874022 lu0=-4.542793e-09 wu0=-3.769856e-09 pu0=5.406313e-15 a0=2.791505 
+ la0=-1.609995e-06 wa0=-1.271796e-06 pa0=1.108491e-12 keta=0.0321512 lketa=-2.65058e-08 
+ wketa=-1.965488e-08 pketa=2.466123e-14 a1=0 a2=0.99 ags=0.9056002 lags=-7.006794e-07 
+ b0=0 b1=0 voff=-0.1 nfactor=0.7543952 lnfactor=1.161336e-07 wnfactor=6.998602e-08 
+ pnfactor=-1.085636e-13 cit=0.000285048 lcit=-7.870424e-11 wcit=-7.062511e-11 pcit=1.330915e-16 
+ cdsc=0 cdscb=0 cdscd=0 eta0=0.003352228 leta0=-2.973624e-09 weta0=-3.048375e-09 
+ peta0=3.405695e-15 etab=0.0006475641 letab=-6.087711e-10 wetab=-6.928325e-10 petab=6.256102e-16 
+ dsub=0 pclm=1.032518 lpclm=-3.847236e-07 wpclm=-6.537757e-07 ppclm=7.564184e-13 
+ pdiblc1=1e-05 pdiblc2=-0.00416775 lpdiblc2=5.857526e-09 wpdiblc2=3.274343e-09 
+ ppdiblc2=-2.029931e-15 pdiblcb=0.1387533 drout=0 pscbe1=1.089719e+08 lpscbe1=156.0066 
+ wpscbe1=240.2935 ppscbe1=-0.000109865 pscbe2=-5.255092e-06 lpscbe2=3.628897e-12 
+ wpscbe2=1.043208e-11 ppscbe2=-5.537501e-18 pvag=0 delta=0.01 alpha0=2.5e-06 beta0=20.7 
+ kt1=-0.09596287 lkt1=-6.455721e-08 wkt1=-1.169567e-07 pkt1=3.638983e-14 kt2=0.07813779 
+ lkt2=-6.414494e-08 wkt2=-8.944794e-08 pkt2=5.869918e-14 at=-110972.9 lat=0.1102741 
+ wat=0.1529166 pat=-1.614668e-07 ute=-3.559982 lute=1.667736e-06 wute=1.777075e-06 
+ pute=-1.623261e-12 ua1=-5.651362e-10 lua1=-9.832879e-17 wua1=3.654639e-16 pua1=1.9884e-22 
+ ub1=-6.47051e-19 lub1=-7.301864e-25 wub1=3.564699e-25 pub1=8.010748e-31 uc1=-8.009362e-12 
+ luc1=-1.219232e-16 wuc1=-5.362414e-18 puc1=1.244631e-22 kt1l=0 prt=-2390.559 lprt=0.002332001 
+ wprt=0.00169471 pprt=-1.960779e-09 cj=cjn cjsw=cjswn cjswg=cjswgn mj=0.3297355 
+ mjsw=0.1303453 mjswg=0.1303453 pb=0.6944804 pbsw=0.6944804 pbswg=0.6944804 cta=9.42521e-4 
+ ctp=4.91382e-04 pta=1.485657e-03 ptp=1.485657e-03 cgdo=cgon cgso=cgon xti=3 n=1 
+ capmod=0 nqsmod=0 xpart=1 cf=0 
+ js=6.27496e-05 jsw=5.79847e-10 
// 
// 
     6: type=n minr=1e-60 lmin=3.5e-07 lmax=8.07e-07 - dxl wmin=7.83e-07 - dxw wmax=1.183e-06 
+ - dxw tnom=25 version=3.1 ldif=1.2e-07 hdif=hdifn rsh=82.2 rd=0 rs=0 tox=toxn 
+ xj=1e-07 nch=2.3579e+17 lln=1 lwn=1 wln=1 wwn=1 lint=4e-08 ll=0 lw=0 lwl=0 wint=4e-08 
+ wl=0 ww=0 wwl=0 mobmod=1 binunit=2 xl=3e-08 + dxl xw=1.5e-07 + dxw dwg=0 dwb=0 
+ vth0=dvtn + 0.574607 lvth0=-4.339362e-11 wvth0=-4.991848e-08 pvth0=1.334716e-14 
+ k1=0.5850455 lk1=-2.697753e-08 wk1=-6.326979e-08 pk1=2.320913e-14 k2=0.03486114 
+ lk2=-1.597786e-08 wk2=1.119166e-08 pk2=7.420165e-16 k3=0 dvt0=0 dvt1=0 dvt2=0 
+ dvt0w=0 dvt1w=0 dvt2w=0 nlx=0 w0=0 k3b=0 vsat=119212.2 lvsat=-0.01001536 wvsat=-0.002492058 
+ pvsat=6.414841e-09 ua=-1.425246e-09 lua=1.078912e-15 wua=1.785833e-15 pua=-1.351876e-21 
+ ub=4.112102e-18 lub=-1.385562e-24 wub=-3.105826e-24 pub=1.477766e-30 uc=4.050535e-11 
+ luc=1.687038e-17 wuc=-1.424299e-17 puc=-2.161491e-23 rdsw=750 prwb=0 prwg=0 wr=1 
+ u0=0.02507698 lu0=5.800281e-09 wu0=1.429596e-08 pu0=-8.26951e-15 a0=0.3001916 
+ la0=2.759296e-07 wa0=2.92755e-07 pa0=-7.587451e-14 keta=-0.05698659 lketa=4.097151e-08 
+ wketa=5.056813e-08 pketa=-2.84976e-14 a1=0 a2=0.99 ags=-0.0458255 lags=1.954991e-08 
+ wags=2.381111e-08 pags=-1.802502e-14 b0=0 b1=0 voff=-0.141804 lvoff=3.164562e-08 
+ wvoff=2.706921e-08 pvoff=-2.049139e-14 nfactor=1.157475 lnfactor=-1.889977e-07 
+ wnfactor=-2.007654e-07 pnfactor=9.63953e-14 cit=0.0001456854 lcit=2.679317e-11 
+ wcit=-9.555716e-12 pcit=8.686202e-17 cdsc=0 cdscb=0 cdscd=0 eta0=-0.006824942 
+ leta0=4.730496e-09 weta0=6.882274e-09 peta0=-4.111808e-15 etab=0.0002038415 letab=-2.728731e-10 
+ wetab=2.081748e-10 petab=-5.645233e-17 dsub=0 pclm=0.8004329 lpclm=-2.090351e-07 
+ wpclm=-3.558609e-08 ppclm=2.884489e-13 pdiblc1=1e-05 pdiblc2=0.005613619 lpdiblc2=-1.546974e-09 
+ wpdiblc2=-6.866557e-09 ppdiblc2=5.646734e-15 pdiblcb=0.1320065 lpdiblcb=5.107366e-09 
+ wpdiblcb=1.060778e-07 ppdiblcb=-8.030091e-14 drout=0 pscbe1=6.561562e+07 lpscbe1=188.8273 
+ wpscbe1=312.9262 ppscbe1=-0.000164848 pscbe2=-1.060816e-05 lpscbe2=7.681177e-12 
+ wpscbe2=1.299818e-11 ppscbe2=-7.480043e-18 pvag=0 delta=0.01 alpha0=2.5e-06 beta0=20.7 
+ kt1=-0.2037678 lkt1=1.705115e-08 wkt1=1.984253e-08 pkt1=-6.716717e-14 kt2=-0.01380252 
+ lkt2=5.453875e-09 wkt2=-7.416772e-10 pkt2=-8.45146e-15 at=92820.91 lat=-0.04399785 
+ wat=-0.1314896 pat=5.382871e-08 ute=0.1429917 lute=-1.135416e-06 wute=-1.857417e-06 
+ pute=1.12805e-12 ua1=7.997219e-09 lua1=-6.580034e-15 wua1=-7.949868e-15 pua1=6.493548e-21 
+ ub1=-1.595098e-17 lub1=1.08549e-23 wub1=1.52327e-23 pub1=-1.046024e-29 uc1=-4.433896e-10 
+ luc1=2.076597e-16 wuc1=4.137613e-16 puc1=-1.928136e-22 kt1l=0 prt=1397.411 lprt=-0.0005354923 
+ wprt=-0.001742289 pprt=6.410293e-10 cj=cjn cjsw=cjswn cjswg=cjswgn mj=0.3297355 
+ mjsw=0.1303453 mjswg=0.1303453 pb=0.6944804 pbsw=0.6944804 pbswg=0.6944804 cta=9.42521e-4 
+ ctp=4.91382e-04 pta=1.485657e-03 ptp=1.485657e-03 cgdo=cgon cgso=cgon xti=3 n=1 
+ capmod=0 nqsmod=0 xpart=1 cf=0 
+ js=6.27496e-05 jsw=5.79847e-10 
// 
// 
     7: type=n minr=1e-60 lmin=1.207e-06 - dxl lmax=2.01e-05 wmin=4e-07 wmax=7.83e-07 - dxw 
+ tnom=25 version=3.1 ldif=1.2e-07 hdif=hdifn rsh=82.2 rd=0 rs=0 tox=toxn 
+ xj=1e-07 nch=2.3579e+17 lln=1 lwn=1 wln=1 wwn=1 lint=4e-08 ll=0 lw=0 lwl=0 wint=4e-08 
+ wl=0 ww=0 wwl=0 mobmod=1 binunit=2 xl=3e-08 + dxl xw=1.5e-07 + dxw dwg=0 dwb=0 
+ vth0=dvtn + 0.544538 lvth0=1.720274e-08 wvth0=-2.546298e-08 pvth0=3.096841e-15 
+ k1=0.5502741 lk1=-3.125255e-08 wk1=-4.411482e-08 pk1=1.494289e-14 k2=0.01727784 
+ lk2=-1.487584e-08 wk2=1.441049e-08 pk2=4.675549e-15 k3=0 dvt0=0 dvt1=0 dvt2=0 
+ dvt0w=0 dvt1w=0 dvt2w=0 nlx=0 w0=0 k3b=0 vsat=96507.23 ua=-7.802065e-10 lua=9.026988e-16 
+ wua=3.534335e-16 pua=-4.089226e-22 ub=1.893473e-18 lub=-5.306664e-25 wub=-1.580168e-25 
+ pub=-1.223976e-32 uc=2.085218e-11 luc=1.298873e-17 wuc=-2.192611e-18 puc=-1.766579e-23 
+ rdsw=750 prwb=0 prwg=0 wr=1 u0=0.03104484 lu0=4.876105e-09 wu0=7.504263e-10 pu0=-2.632391e-16 
+ a0=0.5611327 la0=5.492548e-07 wa0=7.205156e-08 pa0=-8.697965e-14 keta=0.01632805 
+ lketa=1.817118e-09 wketa=-4.562111e-09 pketa=-1.344362e-15 a1=0 a2=0.99 ags=0.001377129 
+ lags=3.717127e-07 wags=1.188842e-09 pags=-2.372926e-14 b0=0 b1=0 voff=-0.1332525 
+ lvoff=3.847315e-08 wvoff=1.025464e-08 pvoff=-1.186462e-14 nfactor=1.473942 lnfactor=-7.516272e-07 
+ wnfactor=-5.794843e-07 pnfactor=6.729374e-13 cit=-0.0006621464 lcit=1.027861e-09 
+ wcit=8.332366e-10 pcit=-9.217706e-16 cdsc=0 cdscb=0 cdscd=0 eta0=7.131314e-05 
+ leta0=5.99268e-10 weta0=2.599593e-11 peta0=3.897462e-17 etab=2.000076e-05 letab=-4.256616e-10 
+ wetab=-5.017732e-12 petab=2.929716e-16 dsub=0 pclm=0.1762022 lpclm=4.750038e-07 
+ wpclm=-5.944212e-09 ppclm=1.186463e-13 pdiblc1=1e-05 pdiblc2=0.0002290868 lpdiblc2=8.598363e-10 
+ wpdiblc2=-1.981044e-10 ppdiblc2=1.91139e-15 pdiblcb=0.1304779 lpdiblcb=1.651774e-07 
+ wpdiblcb=7.058936e-09 ppdiblcb=-1.408963e-13 drout=0 pscbe1=4.235152e+08 lpscbe1=-58.8318 
+ wpscbe1=15.34459 ppscbe1=2.322858e-05 pscbe2=7.703648e-05 lpscbe2=-8.780832e-11 
+ wpscbe2=1.942555e-11 ppscbe2=-1.916228e-17 pvag=0 delta=0.01 alpha0=2.5e-06 beta0=20.7 
+ kt1=-0.3097948 lkt1=8.128185e-08 wkt1=1.398491e-08 pkt1=-2.847512e-14 kt2=-0.005076239 
+ lkt2=-4.617562e-08 wkt2=-1.103323e-08 pkt2=3.477121e-14 at=82328.36 lat=-0.08739209 
+ wat=-0.06117122 pat=6.406897e-08 ute=-1.349974 lute=-6.17695e-07 wute=5.706533e-08 
+ pute=1.351592e-13 ua1=3.045211e-09 lua1=-4.130031e-15 wua1=-7.774787e-16 pua1=1.397139e-21 
+ ub1=-3.662418e-18 lub1=4.251251e-24 wub1=8.839907e-25 pub1=-1.082504e-30 uc1=-1.046373e-10 
+ luc1=1.031438e-16 wuc1=2.654866e-17 puc1=-9.075983e-24 kt1l=0 prt=473.8944 lprt=-0.0009821708 
+ wprt=-0.0003845492 pprt=4.449234e-10 cj=cjn cjsw=cjswn cjswg=cjswgn mj=0.3297355 
+ mjsw=0.1303453 mjswg=0.1303453 pb=0.6944804 pbsw=0.6944804 pbswg=0.6944804 cta=9.42521e-4 
+ ctp=4.91382e-04 pta=1.485657e-03 ptp=1.485657e-03 cgdo=cgon cgso=cgon xti=3 n=1 
+ capmod=0 nqsmod=0 xpart=1 cf=0 
+ js=6.27496e-05 jsw=5.79847e-10 
// 
// 
     8: type=n minr=1e-60 lmin=8.07e-07 - dxl lmax=1.207e-06 - dxl wmin=4e-07 wmax=7.83e-07 
+ - dxw tnom=25 version=3.1 ldif=1.2e-07 hdif=hdifn rsh=82.2 rd=0 rs=0 tox=toxn 
+ xj=1e-07 nch=2.3579e+17 lln=1 lwn=1 wln=1 wwn=1 lint=4e-08 ll=0 lw=0 lwl=0 wint=4e-08 
+ wl=0 ww=0 wwl=0 mobmod=1 binunit=2 xl=3e-08 + dxl xw=1.5e-07 + dxw dwg=0 dwb=0 
+ vth0=dvtn + 0.611238 lvth0=-5.996844e-08 wvth0=-7.346332e-08 pvth0=5.863323e-14 
+ k1=0.4463096 lk1=8.903435e-08 wk1=-5.096067e-09 pk1=-3.02018e-14 k2=-0.009934468 
+ lk2=1.660881e-08 wk2=2.751338e-08 pk2=-1.048449e-14 k3=0 dvt0=0 dvt1=0 dvt2=0 